* NGSPICE file created from 10T_32x32_magic_flattened.ext - technology: sky130A

.subckt x10T_32x32_magic_flattened RBL1_0 RBL0_0 RBL1_1 RBL0_1 RBL1_2 RBL0_2 RBL1_3
+ RBL0_3 RBL1_4 RBL0_4 RBL1_5 RBL0_5 RBL1_6 RBL0_6 RBL1_7 RBL0_7 RBL1_8 RBL0_8 RBL1_9
+ RBL0_9 RBL1_10 RBL0_10 RBL1_11 RBL0_11 RBL1_12 RBL0_12 RBL1_13 RBL0_13 RBL1_14 RBL0_14
+ RBL1_15 RBL0_15 WWL_0 RWL_0 WWL_1 RWL_1 WWL_2 RWL_2 WWL_3 RWL_3 WWL_4 RWL_4 WWL_5
+ RWL_5 WWL_6 RWL_6 WWL_7 RWL_7 WWL_8 RWL_8 WWL_9 RWL_9 WWL_10 RWL_10 WWL_11 RWL_11
+ WWL_12 RWL_12 WWL_13 RWL_13 WWL_14 RWL_14 WWL_15 RWL_15 WWL_16 RWL_16 WWL_17 RWL_17
+ WWL_18 RWL_18 WWL_19 RWL_19 WWL_20 RWL_20 WWL_21 RWL_21 WWL_22 RWL_22 WWL_23 RWL_23
+ WWL_24 RWL_24 WWL_25 RWL_25 WWL_26 RWL_26 WWL_27 RWL_27 WWL_28 RWL_28 WWL_29 RWL_29
+ WWL_30 RWL_30 WWL_31 RWL_31 RBL1_16 RBL0_16 RBL1_17 RBL0_17 RBL1_18 RBL0_18 RBL1_19
+ RBL0_19 RBL1_20 RBL0_20 RBL1_21 RBL0_21 RBL1_22 RBL0_22 RBL1_23 RBL0_23 RBL1_24
+ RBL0_24 RBL1_25 RBL0_25 RBL1_26 RBL0_26 RBL1_27 RBL0_27 RBL1_28 RBL0_28 RBL1_29
+ RBL0_29 RBL1_30 RBL0_30 RBL1_31 RBL0_31 WBL_0 WBLb_0 WBL_1 WBLb_1 WBL_2 WBLb_2 WBL_3
+ WBLb_19 WBL_4 WBLb_4 WBL_5 WBLb_5 WBL_22 WBLb_6 WBL_23 WBLb_7 WBL_24 WBLb_8 WBL_25
+ WBLb_9 WBL_26 WBLb_10 WBL_11 WBLb_11 WBL_12 WBLb_12 WBL_13 WBLb_13 WBL_14 WBLb_30
+ WBL_15 WBLb_31 VDD GND

M1000 GND a_12309_826# a_12253_848# GND sky130_fd_pr__nfet_01v8 w=1 l=0.15

M1001 a_2163_3818# a_1962_3796# GND GND sky130_fd_pr__nfet_01v8 w=1 l=0.15

M1002 a_10569_2446# WWL_22 WBLb_18 GND sky130_fd_pr__nfet_01v8 w=1 l=0.15

M1003 a_16313_4088# RWL_16 RBL1_28 GND sky130_fd_pr__nfet_01v8 w=1 l=0.15

M1004 a_4483_4898# a_4282_4876# GND GND sky130_fd_pr__nfet_01v8 w=1 l=0.15

M1005 a_12889_3526# WWL_18 WBLb_22 GND sky130_fd_pr__nfet_01v8 w=1 l=0.15

M1006 a_4133_8138# RWL_1 RBL1_7 GND sky130_fd_pr__nfet_01v8 w=1 l=0.15

M1007 RBL0_13 RWL_2 a_7963_7868# GND sky130_fd_pr__nfet_01v8 w=1 l=0.15

M1008 WBL_14 WWL_12 a_8342_5146# GND sky130_fd_pr__nfet_01v8 w=1 l=0.15

M1009 a_16083_6518# a_15882_6496# GND GND sky130_fd_pr__nfet_01v8 w=1 l=0.15

M1010 WBL_5 WWL_20 a_3122_2986# GND sky130_fd_pr__nfet_01v8 w=1 l=0.15

M1011 a_11242_1906# a_11149_1906# GND GND sky130_fd_pr__nfet_01v8 w=1 l=0.15

M1012 a_7762_826# a_7669_826# VDD VDD sky130_fd_pr__pfet_01v8 w=1 l=0.15

M1013 a_18403_7598# a_18202_7576# GND GND sky130_fd_pr__nfet_01v8 w=1 l=0.15

M1014 a_11242_5686# a_11149_5686# VDD VDD sky130_fd_pr__pfet_01v8 w=1 l=0.15

M1015 GND a_11242_7846# a_11149_7846# GND sky130_fd_pr__nfet_01v8 w=1 l=0.15

M1016 a_4862_2986# a_4769_2986# VDD VDD sky130_fd_pr__pfet_01v8 w=1 l=0.15

M1017 GND a_9409_3526# a_9353_3548# GND sky130_fd_pr__nfet_01v8 w=1 l=0.15

M1018 VDD a_2542_7846# a_2449_7846# VDD sky130_fd_pr__pfet_01v8 w=1 l=0.15

M1019 GND a_10569_7846# a_10513_7868# GND sky130_fd_pr__nfet_01v8 w=1 l=0.15

M1020 GND a_709_5416# a_653_5438# GND sky130_fd_pr__nfet_01v8 w=1 l=0.15

M1021 GND a_4862_5146# a_4769_5146# GND sky130_fd_pr__nfet_01v8 w=1 l=0.15

M1022 a_2973_7598# RWL_3 RBL1_5 GND sky130_fd_pr__nfet_01v8 w=1 l=0.15

M1023 a_7383_309# a_7182_287# GND GND sky130_fd_pr__nfet_01v8 w=1 l=0.15

M1024 a_9703_578# a_9502_556# GND GND sky130_fd_pr__nfet_01v8 w=1 l=0.15

M1025 a_14923_5978# a_14722_5956# GND GND sky130_fd_pr__nfet_01v8 w=1 l=0.15

M1026 a_423_2468# a_222_2446# GND GND sky130_fd_pr__nfet_01v8 w=1 l=0.15

M1027 a_1382_286# a_1289_286# GND GND sky130_fd_pr__nfet_01v8 w=1 l=0.15

M1028 GND a_6602_1906# a_6509_1906# GND sky130_fd_pr__nfet_01v8 w=1 l=0.15

M1029 a_802_3796# a_709_3796# VDD VDD sky130_fd_pr__pfet_01v8 w=1 l=0.15

M1030 VDD a_7182_6766# a_7089_6766# VDD sky130_fd_pr__pfet_01v8 w=1 l=0.15

M1031 VDD a_6602_5686# a_6509_5686# VDD sky130_fd_pr__pfet_01v8 w=1 l=0.15

M1032 a_5349_3256# WWL_19 WBLb_9 GND sky130_fd_pr__nfet_01v8 w=1 l=0.15

M1033 RBL0_22 RWL_6 a_13183_6788# GND sky130_fd_pr__nfet_01v8 w=1 l=0.15

M1034 GND a_5929_1906# a_5873_1928# GND sky130_fd_pr__nfet_01v8 w=1 l=0.15

M1035 WBL_23 WWL_16 a_13562_4066# GND sky130_fd_pr__nfet_01v8 w=1 l=0.15

M1036 RBL0_7 RWL_20 a_4483_3008# GND sky130_fd_pr__nfet_01v8 w=1 l=0.15

M1037 GND a_18109_4066# a_18053_4088# GND sky130_fd_pr__nfet_01v8 w=1 l=0.15

M1038 a_9502_8116# a_9409_8116# GND GND sky130_fd_pr__nfet_01v8 w=1 l=0.15

M1039 RBL0_11 RWL_16 a_6803_4088# GND sky130_fd_pr__nfet_01v8 w=1 l=0.15

M1040 a_423_308# a_222_286# GND GND sky130_fd_pr__nfet_01v8 w=1 l=0.15

M1041 GND a_15302_2446# a_15209_2446# GND sky130_fd_pr__nfet_01v8 w=1 l=0.15

M1042 RBL0_15 RWL_24 a_9123_1928# GND sky130_fd_pr__nfet_01v8 w=1 l=0.15

M1043 a_6022_2716# a_5929_2716# GND GND sky130_fd_pr__nfet_01v8 w=1 l=0.15

M1044 RBL0_0 RWL_17 a_423_3818# GND sky130_fd_pr__nfet_01v8 w=1 l=0.15

M1045 VDD a_15302_6226# a_15209_6226# VDD sky130_fd_pr__pfet_01v8 w=1 l=0.15

M1046 a_1869_1636# WWL_25 WBLb_3 GND sky130_fd_pr__nfet_01v8 w=1 l=0.15

M1047 a_6022_6496# a_5929_6496# VDD VDD sky130_fd_pr__pfet_01v8 w=1 l=0.15

M1048 GND a_14629_2446# a_14573_2468# GND sky130_fd_pr__nfet_01v8 w=1 l=0.15

M1049 a_7613_3278# RWL_19 RBL1_13 GND sky130_fd_pr__nfet_01v8 w=1 l=0.15

M1050 a_7383_5708# a_7182_5686# GND GND sky130_fd_pr__nfet_01v8 w=1 l=0.15

M1052 a_653_1928# RWL_24 RBL1_1 GND sky130_fd_pr__nfet_01v8 w=1 l=0.15

M1053 a_2163_3548# a_1962_3526# GND GND sky130_fd_pr__nfet_01v8 w=1 l=0.15

M1054 a_15789_4336# WWL_15 WBLb_27 GND sky130_fd_pr__nfet_01v8 w=1 l=0.15

M1055 VDD a_1962_826# a_1869_826# VDD sky130_fd_pr__pfet_01v8 w=1 l=0.15

M1056 GND a_12309_556# a_12253_578# GND sky130_fd_pr__nfet_01v8 w=1 l=0.15

M1057 a_10569_2176# WWL_23 WBLb_18 GND sky130_fd_pr__nfet_01v8 w=1 l=0.15

M1058 VDD a_11822_4606# a_11729_4606# VDD sky130_fd_pr__pfet_01v8 w=1 l=0.15

M1059 a_9703_6788# a_9502_6766# GND GND sky130_fd_pr__nfet_01v8 w=1 l=0.15

M1060 a_2449_826# WWL_28 WBLb_4 GND sky130_fd_pr__nfet_01v8 w=1 l=0.15

M1061 RBL0_1 RWL_30 a_1003_308# GND sky130_fd_pr__nfet_01v8 w=1 l=0.15

M1062 a_13183_848# a_12982_826# GND GND sky130_fd_pr__nfet_01v8 w=1 l=0.15

M1063 a_1289_8386# WWL_0 WBLb_2 GND sky130_fd_pr__nfet_01v8 w=1 l=0.15

M1064 RBL0_13 a_4683_7576# a_7963_7598# GND sky130_fd_pr__nfet_01v8 w=1 l=0.15

M1065 WBL_14 WWL_13 a_8342_4876# GND sky130_fd_pr__nfet_01v8 w=1 l=0.15

M1066 a_16083_6248# a_15882_6226# GND GND sky130_fd_pr__nfet_01v8 w=1 l=0.15

M1067 a_10513_1118# RWL_27 RBL1_18 GND sky130_fd_pr__nfet_01v8 w=1 l=0.15

M1068 a_16462_3796# a_16369_3796# GND GND sky130_fd_pr__nfet_01v8 w=1 l=0.15

M1069 a_5442_287# a_5349_287# VDD VDD sky130_fd_pr__pfet_01v8 w=1 l=0.15

M1070 a_11242_1636# a_11149_1636# GND GND sky130_fd_pr__nfet_01v8 w=1 l=0.15

M1071 a_16462_7576# a_16369_7576# VDD VDD sky130_fd_pr__pfet_01v8 w=1 l=0.15

M1072 a_11242_5416# a_11149_5416# VDD VDD sky130_fd_pr__pfet_01v8 w=1 l=0.15

M1073 WBL_31 WWL_29 a_18202_556# GND sky130_fd_pr__nfet_01v8 w=1 l=0.15

M1074 RBL0_11 RWL_31 a_6803_39# GND sky130_fd_pr__nfet_01v8 w=1 l=0.15

M1075 a_5873_8408# RWL_0 RBL1_10 GND sky130_fd_pr__nfet_01v8 w=1 l=0.15

M1076 GND a_11242_7576# a_11149_7576# GND sky130_fd_pr__nfet_01v8 w=1 l=0.15

M1077 a_1962_7846# a_1869_7846# GND GND sky130_fd_pr__nfet_01v8 w=1 l=0.15

M1078 RBL0_7 RWL_9 a_4483_5978# GND sky130_fd_pr__nfet_01v8 w=1 l=0.15

M1079 GND a_9409_3256# a_9353_3278# GND sky130_fd_pr__nfet_01v8 w=1 l=0.15

M1080 GND a_10569_7576# a_10513_7598# GND sky130_fd_pr__nfet_01v8 w=1 l=0.15

M1081 GND a_709_5146# a_653_5168# GND sky130_fd_pr__nfet_01v8 w=1 l=0.15

M1082 a_12603_4628# a_12402_4606# GND GND sky130_fd_pr__nfet_01v8 w=1 l=0.15

M1083 a_423_2198# a_222_2176# GND GND sky130_fd_pr__nfet_01v8 w=1 l=0.15

M1084 GND a_6602_1636# a_6509_1636# GND sky130_fd_pr__nfet_01v8 w=1 l=0.15

M1085 GND a_7182_2716# a_7089_2716# GND sky130_fd_pr__nfet_01v8 w=1 l=0.15

M1086 a_15789_287# WWL_30 WBLb_27 GND sky130_fd_pr__nfet_01v8 w=1 l=0.15

M1087 a_9502_1636# a_9409_1636# VDD VDD sky130_fd_pr__pfet_01v8 w=1 l=0.15

M1088 a_802_3526# a_709_3526# VDD VDD sky130_fd_pr__pfet_01v8 w=1 l=0.15

M1089 VDD a_7182_6496# a_7089_6496# VDD sky130_fd_pr__pfet_01v8 w=1 l=0.15

M1090 VDD a_6602_5416# a_6509_5416# VDD sky130_fd_pr__pfet_01v8 w=1 l=0.15

M1091 a_5349_2986# WWL_20 WBLb_9 GND sky130_fd_pr__nfet_01v8 w=1 l=0.15

M1092 GND a_5929_1636# a_5873_1658# GND sky130_fd_pr__nfet_01v8 w=1 l=0.15

M1093 WBL_27 WWL_25 a_15882_1636# GND sky130_fd_pr__nfet_01v8 w=1 l=0.15

M1094 GND a_12309_1096# a_12253_1118# GND sky130_fd_pr__nfet_01v8 w=1 l=0.15

M1095 GND a_15302_2176# a_15209_2176# GND sky130_fd_pr__nfet_01v8 w=1 l=0.15

M1096 WBL_31 WWL_21 a_18202_2716# GND sky130_fd_pr__nfet_01v8 w=1 l=0.15

M1097 a_9933_3008# RWL_20 RBL1_17 GND sky130_fd_pr__nfet_01v8 w=1 l=0.15

M1098 RBL0_15 RWL_25 a_9123_1658# GND sky130_fd_pr__nfet_01v8 w=1 l=0.15

M1099 a_6022_2446# a_5929_2446# GND GND sky130_fd_pr__nfet_01v8 w=1 l=0.15

M1100 a_11822_7846# a_11729_7846# GND GND sky130_fd_pr__nfet_01v8 w=1 l=0.15

M1101 a_1869_1366# WWL_26 WBLb_3 GND sky130_fd_pr__nfet_01v8 w=1 l=0.15

M1102 RBL0_0 RWL_18 a_423_3548# GND sky130_fd_pr__nfet_01v8 w=1 l=0.15

M1103 GND a_14629_2176# a_14573_2198# GND sky130_fd_pr__nfet_01v8 w=1 l=0.15

M1104 WBL_10 WWL_6 a_6022_6766# GND sky130_fd_pr__nfet_01v8 w=1 l=0.15

M1105 a_6022_6226# a_5929_6226# VDD VDD sky130_fd_pr__pfet_01v8 w=1 l=0.15

M1106 GND a_3029_7306# a_2973_7328# GND sky130_fd_pr__nfet_01v8 w=1 l=0.15

M1107 a_11242_826# a_11149_826# VDD VDD sky130_fd_pr__pfet_01v8 w=1 l=0.15

M1108 a_7383_5438# a_7182_5416# GND GND sky130_fd_pr__nfet_01v8 w=1 l=0.15

M1109 a_653_1658# RWL_25 RBL1_1 GND sky130_fd_pr__nfet_01v8 w=1 l=0.15

M1110 a_15789_4066# WWL_16 WBLb_27 GND sky130_fd_pr__nfet_01v8 w=1 l=0.15

M1111 a_10569_1906# WWL_24 WBLb_18 GND sky130_fd_pr__nfet_01v8 w=1 l=0.15

M1112 a_2163_3278# a_1962_3256# GND GND sky130_fd_pr__nfet_01v8 w=1 l=0.15

M1113 VDD a_11822_4336# a_11729_4336# VDD sky130_fd_pr__pfet_01v8 w=1 l=0.15

M1114 a_7762_6766# a_7669_6766# VDD VDD sky130_fd_pr__pfet_01v8 w=1 l=0.15

M1115 a_2542_4606# a_2449_4606# VDD VDD sky130_fd_pr__pfet_01v8 w=1 l=0.15

M1116 a_3553_38# RWL_31 RBL1_6 GND sky130_fd_pr__nfet_01v8 w=1 l=0.15

M1117 GND a_2542_6766# a_2449_6766# GND sky130_fd_pr__nfet_01v8 w=1 l=0.15

M1118 a_13183_578# a_12982_556# GND GND sky130_fd_pr__nfet_01v8 w=1 l=0.15

M1119 a_1289_8116# WWL_1 WBLb_2 GND sky130_fd_pr__nfet_01v8 w=1 l=0.15

M1120 VDD a_17622_826# a_17529_826# VDD sky130_fd_pr__pfet_01v8 w=1 l=0.15

M1121 GND a_1869_6766# a_1813_6788# GND sky130_fd_pr__nfet_01v8 w=1 l=0.15

M1122 a_16462_3526# a_16369_3526# GND GND sky130_fd_pr__nfet_01v8 w=1 l=0.15

M1123 a_3903_3818# a_3702_3796# GND GND sky130_fd_pr__nfet_01v8 w=1 l=0.15

M1124 GND a_14142_8386# a_14049_8386# GND sky130_fd_pr__nfet_01v8 w=1 l=0.15

M1125 a_5442_17# a_5349_17# VDD VDD sky130_fd_pr__pfet_01v8 w=1 l=0.15

M1126 a_11242_1366# a_11149_1366# GND GND sky130_fd_pr__nfet_01v8 w=1 l=0.15

M1127 a_16462_7306# a_16369_7306# VDD VDD sky130_fd_pr__pfet_01v8 w=1 l=0.15

M1128 WBL_19 WWL_10 a_11242_5686# GND sky130_fd_pr__nfet_01v8 w=1 l=0.15

M1129 GND a_13469_8386# a_13413_8408# GND sky130_fd_pr__nfet_01v8 w=1 l=0.15

M1130 RBL0_3 RWL_14 a_2163_4628# GND sky130_fd_pr__nfet_01v8 w=1 l=0.15

M1131 a_5873_8138# RWL_1 RBL1_10 GND sky130_fd_pr__nfet_01v8 w=1 l=0.15

M1132 RBL0_16 RWL_2 a_9703_7868# GND sky130_fd_pr__nfet_01v8 w=1 l=0.15

M1133 a_1962_7576# a_1869_7576# GND GND sky130_fd_pr__nfet_01v8 w=1 l=0.15

M1134 a_17823_6518# a_17622_6496# GND GND sky130_fd_pr__nfet_01v8 w=1 l=0.15

M1135 a_12603_4358# a_12402_4336# GND GND sky130_fd_pr__nfet_01v8 w=1 l=0.15

M1136 RBL0_27 RWL_4 a_16083_7328# GND sky130_fd_pr__nfet_01v8 w=1 l=0.15

M1137 GND a_12982_7846# a_12889_7846# GND sky130_fd_pr__nfet_01v8 w=1 l=0.15

M1138 a_9933_5978# RWL_9 RBL1_17 GND sky130_fd_pr__nfet_01v8 w=1 l=0.15

M1139 GND a_7182_2446# a_7089_2446# GND sky130_fd_pr__nfet_01v8 w=1 l=0.15

M1140 a_15789_17# WWL_31 WBLb_27 GND sky130_fd_pr__nfet_01v8 w=1 l=0.15

M1141 GND a_6602_1366# a_6509_1366# GND sky130_fd_pr__nfet_01v8 w=1 l=0.15

M1142 a_5293_4898# RWL_13 RBL1_9 GND sky130_fd_pr__nfet_01v8 w=1 l=0.15

M1143 VDD a_7182_6226# a_7089_6226# VDD sky130_fd_pr__pfet_01v8 w=1 l=0.15

M1144 WBL_1 WWL_17 a_802_3796# GND sky130_fd_pr__nfet_01v8 w=1 l=0.15

M1145 GND a_5929_1366# a_5873_1388# GND sky130_fd_pr__nfet_01v8 w=1 l=0.15

M1146 GND a_18202_2986# a_18109_2986# GND sky130_fd_pr__nfet_01v8 w=1 l=0.15

M1147 WBL_27 WWL_26 a_15882_1366# GND sky130_fd_pr__nfet_01v8 w=1 l=0.15

M1148 RBL0_21 RWL_10 a_12603_5708# GND sky130_fd_pr__nfet_01v8 w=1 l=0.15

M1149 a_653_38# RWL_31 RBL1_1 GND sky130_fd_pr__nfet_01v8 w=1 l=0.15

M1150 GND a_17529_2986# a_17473_3008# GND sky130_fd_pr__nfet_01v8 w=1 l=0.15

M1151 a_3702_556# a_3609_556# VDD VDD sky130_fd_pr__pfet_01v8 w=1 l=0.15

M1152 RBL0_15 RWL_26 a_9123_1388# GND sky130_fd_pr__nfet_01v8 w=1 l=0.15

M1153 a_11822_7576# a_11729_7576# GND GND sky130_fd_pr__nfet_01v8 w=1 l=0.15

M1154 RBL0_25 RWL_6 a_14923_6788# GND sky130_fd_pr__nfet_01v8 w=1 l=0.15

M1155 a_1869_1096# WWL_27 WBLb_3 GND sky130_fd_pr__nfet_01v8 w=1 l=0.15

M1156 a_6022_2176# a_5929_2176# GND GND sky130_fd_pr__nfet_01v8 w=1 l=0.15

M1157 RBL0_0 RWL_19 a_423_3278# GND sky130_fd_pr__nfet_01v8 w=1 l=0.15

M1158 WBL_10 WWL_7 a_6022_6496# GND sky130_fd_pr__nfet_01v8 w=1 l=0.15

M1159 GND a_3029_7036# a_2973_7058# GND sky130_fd_pr__nfet_01v8 w=1 l=0.15

M1160 a_12833_3818# RWL_17 RBL1_22 GND sky130_fd_pr__nfet_01v8 w=1 l=0.15

M1161 VDD a_14722_5146# a_14629_5146# VDD sky130_fd_pr__pfet_01v8 w=1 l=0.15

M1162 RBL0_14 RWL_28 a_8543_848# GND sky130_fd_pr__nfet_01v8 w=1 l=0.15

M1163 VDD a_10082_4066# a_9989_4066# VDD sky130_fd_pr__pfet_01v8 w=1 l=0.15

M1164 a_653_1388# RWL_26 RBL1_1 GND sky130_fd_pr__nfet_01v8 w=1 l=0.15

M1165 a_7383_5168# a_7182_5146# GND GND sky130_fd_pr__nfet_01v8 w=1 l=0.15

M1166 a_7762_2716# a_7669_2716# GND GND sky130_fd_pr__nfet_01v8 w=1 l=0.15

M1167 a_7762_6496# a_7669_6496# VDD VDD sky130_fd_pr__pfet_01v8 w=1 l=0.15

M1168 a_2542_4336# a_2449_4336# VDD VDD sky130_fd_pr__pfet_01v8 w=1 l=0.15

M1169 a_18109_1636# WWL_25 WBLb_31 GND sky130_fd_pr__nfet_01v8 w=1 l=0.15

M1170 VDD a_15302_287# a_15209_287# VDD sky130_fd_pr__pfet_01v8 w=1 l=0.15

M1171 a_14142_5956# a_14049_5956# VDD VDD sky130_fd_pr__pfet_01v8 w=1 l=0.15

M1172 a_16462_3256# a_16369_3256# GND GND sky130_fd_pr__nfet_01v8 w=1 l=0.15

M1173 a_3903_3548# a_3702_3526# GND GND sky130_fd_pr__nfet_01v8 w=1 l=0.15

M1174 GND a_14142_8116# a_14049_8116# GND sky130_fd_pr__nfet_01v8 w=1 l=0.15

M1175 a_16462_7036# a_16369_7036# VDD VDD sky130_fd_pr__pfet_01v8 w=1 l=0.15

M1176 a_8249_6766# WWL_6 WBLb_14 GND sky130_fd_pr__nfet_01v8 w=1 l=0.15

M1177 WBL_28 WWL_3 a_16462_7576# GND sky130_fd_pr__nfet_01v8 w=1 l=0.15

M1178 RBL0_12 RWL_7 a_7383_6518# GND sky130_fd_pr__nfet_01v8 w=1 l=0.15

M1179 a_3029_4606# WWL_14 WBLb_5 GND sky130_fd_pr__nfet_01v8 w=1 l=0.15

M1180 GND a_13469_8116# a_13413_8138# GND sky130_fd_pr__nfet_01v8 w=1 l=0.15

M1181 WBL_19 WWL_11 a_11242_5416# GND sky130_fd_pr__nfet_01v8 w=1 l=0.15

M1182 RBL0_3 RWL_15 a_2163_4358# GND sky130_fd_pr__nfet_01v8 w=1 l=0.15

M1183 RBL0_16 a_4683_7576# a_9703_7598# GND sky130_fd_pr__nfet_01v8 w=1 l=0.15

M1184 a_6602_287# a_6509_287# GND GND sky130_fd_pr__nfet_01v8 w=1 l=0.15

M1185 a_10283_3008# a_10082_2986# GND GND sky130_fd_pr__nfet_01v8 w=1 l=0.15

M1186 a_17823_6248# a_17622_6226# GND GND sky130_fd_pr__nfet_01v8 w=1 l=0.15

M1187 GND a_18202_5956# a_18109_5956# GND sky130_fd_pr__nfet_01v8 w=1 l=0.15

M1188 a_12603_4088# a_12402_4066# GND GND sky130_fd_pr__nfet_01v8 w=1 l=0.15

M1189 GND a_10662_6496# a_10569_6496# GND sky130_fd_pr__nfet_01v8 w=1 l=0.15

M1190 a_8193_5708# RWL_10 RBL1_14 GND sky130_fd_pr__nfet_01v8 w=1 l=0.15

M1191 VDD a_802_7846# a_709_7846# VDD sky130_fd_pr__pfet_01v8 w=1 l=0.15

M1192 RBL0_27 RWL_5 a_16083_7058# GND sky130_fd_pr__nfet_01v8 w=1 l=0.15

M1193 VDD a_9502_5956# a_9409_5956# VDD sky130_fd_pr__pfet_01v8 w=1 l=0.15

M1194 GND a_17529_5956# a_17473_5978# GND sky130_fd_pr__nfet_01v8 w=1 l=0.15

M1195 GND a_4189_1096# a_4133_1118# GND sky130_fd_pr__nfet_01v8 w=1 l=0.15

M1196 GND a_7182_2176# a_7089_2176# GND sky130_fd_pr__nfet_01v8 w=1 l=0.15

M1197 GND a_12982_7576# a_12889_7576# GND sky130_fd_pr__nfet_01v8 w=1 l=0.15

M1198 a_3702_7846# a_3609_7846# GND GND sky130_fd_pr__nfet_01v8 w=1 l=0.15

M1199 WBL_1 WWL_18 a_802_3526# GND sky130_fd_pr__nfet_01v8 w=1 l=0.15

M1200 a_8193_309# RWL_30 RBL1_14 GND sky130_fd_pr__nfet_01v8 w=1 l=0.15

M1201 a_13469_5686# WWL_10 WBLb_23 GND sky130_fd_pr__nfet_01v8 w=1 l=0.15

M1202 a_8922_2986# a_8829_2986# GND GND sky130_fd_pr__nfet_01v8 w=1 l=0.15

M1203 VDD a_222_4606# a_129_4606# VDD sky130_fd_pr__pfet_01v8 w=1 l=0.15

M1204 a_14722_8386# a_14629_8386# GND GND sky130_fd_pr__nfet_01v8 w=1 l=0.15

M1205 a_10082_7306# a_9989_7306# GND GND sky130_fd_pr__nfet_01v8 w=1 l=0.15

M1206 WBL_27 WWL_27 a_15882_1096# GND sky130_fd_pr__nfet_01v8 w=1 l=0.15

M1207 VDD a_1382_3256# a_1289_3256# VDD sky130_fd_pr__pfet_01v8 w=1 l=0.15

M1208 RBL0_21 RWL_11 a_12603_5438# GND sky130_fd_pr__nfet_01v8 w=1 l=0.15

M1209 a_3702_286# a_3609_286# VDD VDD sky130_fd_pr__pfet_01v8 w=1 l=0.15

M1210 WBL_10 WWL_8 a_6022_6226# GND sky130_fd_pr__nfet_01v8 w=1 l=0.15

M1211 a_1233_38# RWL_31 RBL1_2 GND sky130_fd_pr__nfet_01v8 w=1 l=0.15

M1212 GND a_14722_1096# a_14629_1096# GND sky130_fd_pr__nfet_01v8 w=1 l=0.15

M1213 a_13413_4628# RWL_14 RBL1_23 GND sky130_fd_pr__nfet_01v8 w=1 l=0.15

M1214 RBL0_10 RWL_30 a_6223_309# GND sky130_fd_pr__nfet_01v8 w=1 l=0.15

M1215 a_12833_3548# RWL_18 RBL1_22 GND sky130_fd_pr__nfet_01v8 w=1 l=0.15

M1216 RBL0_14 RWL_29 a_8543_578# GND sky130_fd_pr__nfet_01v8 w=1 l=0.15

M1217 VDD a_14722_4876# a_14629_4876# VDD sky130_fd_pr__pfet_01v8 w=1 l=0.15

M1218 a_5442_5146# a_5349_5146# VDD VDD sky130_fd_pr__pfet_01v8 w=1 l=0.15

M1219 a_8922_826# a_8829_826# GND GND sky130_fd_pr__nfet_01v8 w=1 l=0.15

M1220 a_7762_2446# a_7669_2446# GND GND sky130_fd_pr__nfet_01v8 w=1 l=0.15

M1221 GND a_5442_7306# a_5349_7306# GND sky130_fd_pr__nfet_01v8 w=1 l=0.15

M1222 WBL_13 WWL_6 a_7762_6766# GND sky130_fd_pr__nfet_01v8 w=1 l=0.15

M1223 a_7762_6226# a_7669_6226# VDD VDD sky130_fd_pr__pfet_01v8 w=1 l=0.15

M1224 a_12402_826# a_12309_826# GND GND sky130_fd_pr__nfet_01v8 w=1 l=0.15

M1225 WBL_4 WWL_14 a_2542_4606# GND sky130_fd_pr__nfet_01v8 w=1 l=0.15

M1226 GND a_4769_7306# a_4713_7328# GND sky130_fd_pr__nfet_01v8 w=1 l=0.15

M1227 a_18109_1366# WWL_26 WBLb_31 GND sky130_fd_pr__nfet_01v8 w=1 l=0.15

M1228 a_10283_5978# a_10082_5956# GND GND sky130_fd_pr__nfet_01v8 w=1 l=0.15

M1229 VDD a_14142_1636# a_14049_1636# VDD sky130_fd_pr__pfet_01v8 w=1 l=0.15

M1230 RBL0_29 RWL_27 a_17243_1118# GND sky130_fd_pr__nfet_01v8 w=1 l=0.15

M1231 VDD a_15302_17# a_15209_17# VDD sky130_fd_pr__pfet_01v8 w=1 l=0.15

M1232 a_709_826# WWL_28 WBLb_1 GND sky130_fd_pr__nfet_01v8 w=1 l=0.15

M1233 a_3903_3278# a_3702_3256# GND GND sky130_fd_pr__nfet_01v8 w=1 l=0.15

M1234 GND a_1962_5686# a_1869_5686# GND sky130_fd_pr__nfet_01v8 w=1 l=0.15

M1235 a_8249_6496# WWL_7 WBLb_14 GND sky130_fd_pr__nfet_01v8 w=1 l=0.15

M1236 WBL_28 WWL_4 a_16462_7306# GND sky130_fd_pr__nfet_01v8 w=1 l=0.15

M1237 RBL0_12 RWL_8 a_7383_6248# GND sky130_fd_pr__nfet_01v8 w=1 l=0.15

M1238 RBL0_3 RWL_16 a_2163_4088# GND sky130_fd_pr__nfet_01v8 w=1 l=0.15

M1239 a_10662_4066# a_10569_4066# VDD VDD sky130_fd_pr__pfet_01v8 w=1 l=0.15

M1240 GND a_15882_8386# a_15789_8386# GND sky130_fd_pr__nfet_01v8 w=1 l=0.15

M1241 GND a_15209_4606# a_15153_4628# GND sky130_fd_pr__nfet_01v8 w=1 l=0.15

M1242 a_8193_5438# RWL_11 RBL1_14 GND sky130_fd_pr__nfet_01v8 w=1 l=0.15

M1243 a_222_7846# a_129_7846# GND GND sky130_fd_pr__nfet_01v8 w=1 l=0.15

M1244 GND a_10662_6226# a_10569_6226# GND sky130_fd_pr__nfet_01v8 w=1 l=0.15

M1245 a_8922_5956# a_8829_5956# GND GND sky130_fd_pr__nfet_01v8 w=1 l=0.15

M1246 a_1382_6496# a_1289_6496# GND GND sky130_fd_pr__nfet_01v8 w=1 l=0.15

M1247 RBL0_6 RWL_14 a_3903_4628# GND sky130_fd_pr__nfet_01v8 w=1 l=0.15

M1248 a_3702_7576# a_3609_7576# GND GND sky130_fd_pr__nfet_01v8 w=1 l=0.15

M1249 RBL0_20 RWL_28 a_12023_848# GND sky130_fd_pr__nfet_01v8 w=1 l=0.15

M1250 VDD a_12402_6766# a_12309_6766# VDD sky130_fd_pr__pfet_01v8 w=1 l=0.15

M1251 a_11149_4336# WWL_15 WBLb_19 GND sky130_fd_pr__nfet_01v8 w=1 l=0.15

M1252 VDD a_13562_556# a_13469_556# VDD sky130_fd_pr__pfet_01v8 w=1 l=0.15

M1253 GND a_9989_287# a_9933_309# GND sky130_fd_pr__nfet_01v8 w=1 l=0.15

M1254 a_4713_3818# RWL_17 RBL1_8 GND sky130_fd_pr__nfet_01v8 w=1 l=0.15

M1255 a_5063_6788# a_4862_6766# GND GND sky130_fd_pr__nfet_01v8 w=1 l=0.15

M1256 a_14049_556# WWL_29 WBLb_24 GND sky130_fd_pr__nfet_01v8 w=1 l=0.15

M1257 a_14722_8116# a_14629_8116# GND GND sky130_fd_pr__nfet_01v8 w=1 l=0.15

M1258 RBL0_30 RWL_4 a_17823_7328# GND sky130_fd_pr__nfet_01v8 w=1 l=0.15

M1259 a_13469_5416# WWL_11 WBLb_23 GND sky130_fd_pr__nfet_01v8 w=1 l=0.15

M1260 VDD a_222_4336# a_129_4336# VDD sky130_fd_pr__pfet_01v8 w=1 l=0.15

M1261 a_10082_7036# a_9989_7036# GND GND sky130_fd_pr__nfet_01v8 w=1 l=0.15

M1262 RBL0_21 RWL_12 a_12603_5168# GND sky130_fd_pr__nfet_01v8 w=1 l=0.15

M1263 VDD a_1382_2986# a_1289_2986# VDD sky130_fd_pr__pfet_01v8 w=1 l=0.15

M1264 WBL_15 WWL_5 a_8922_7036# GND sky130_fd_pr__nfet_01v8 w=1 l=0.15

M1265 GND a_3122_826# a_3029_826# GND sky130_fd_pr__nfet_01v8 w=1 l=0.15

M1266 a_3702_16# a_3609_16# VDD VDD sky130_fd_pr__pfet_01v8 w=1 l=0.15

M1268 a_13413_4358# RWL_15 RBL1_23 GND sky130_fd_pr__nfet_01v8 w=1 l=0.15

M1269 a_709_2446# WWL_22 WBLb_1 GND sky130_fd_pr__nfet_01v8 w=1 l=0.15

M1270 a_12833_3278# RWL_19 RBL1_22 GND sky130_fd_pr__nfet_01v8 w=1 l=0.15

M1271 a_14142_4876# a_14049_4876# GND GND sky130_fd_pr__nfet_01v8 w=1 l=0.15

M1272 a_5442_1096# a_5349_1096# GND GND sky130_fd_pr__nfet_01v8 w=1 l=0.15

M1273 a_1233_8408# RWL_0 RBL1_2 GND sky130_fd_pr__nfet_01v8 w=1 l=0.15

M1274 a_5442_4876# a_5349_4876# VDD VDD sky130_fd_pr__pfet_01v8 w=1 l=0.15

M1275 a_8922_556# a_8829_556# GND GND sky130_fd_pr__nfet_01v8 w=1 l=0.15

M1276 a_13413_39# RWL_31 RBL1_23 GND sky130_fd_pr__nfet_01v8 w=1 l=0.15

M1277 a_7762_2176# a_7669_2176# GND GND sky130_fd_pr__nfet_01v8 w=1 l=0.15

M1278 GND a_5442_7036# a_5349_7036# GND sky130_fd_pr__nfet_01v8 w=1 l=0.15

M1279 a_10082_287# a_9989_287# GND GND sky130_fd_pr__nfet_01v8 w=1 l=0.15

M1280 VDD a_17042_2446# a_16949_2446# VDD sky130_fd_pr__pfet_01v8 w=1 l=0.15

M1281 a_12402_556# a_12309_556# GND GND sky130_fd_pr__nfet_01v8 w=1 l=0.15

M1282 WBL_13 WWL_7 a_7762_6496# GND sky130_fd_pr__nfet_01v8 w=1 l=0.15

M1283 a_15503_7868# a_15302_7846# GND GND sky130_fd_pr__nfet_01v8 w=1 l=0.15

M1284 GND a_4769_7036# a_4713_7058# GND sky130_fd_pr__nfet_01v8 w=1 l=0.15

M1285 a_18109_1096# WWL_27 WBLb_31 GND sky130_fd_pr__nfet_01v8 w=1 l=0.15

M1286 GND a_802_6766# a_709_6766# GND sky130_fd_pr__nfet_01v8 w=1 l=0.15

M1287 WBL_24 WWL_9 a_14142_5956# GND sky130_fd_pr__nfet_01v8 w=1 l=0.15

M1288 GND a_6509_3796# a_6453_3818# GND sky130_fd_pr__nfet_01v8 w=1 l=0.15

M1289 GND a_9502_4876# a_9409_4876# GND sky130_fd_pr__nfet_01v8 w=1 l=0.15

M1290 GND a_1962_5416# a_1869_5416# GND sky130_fd_pr__nfet_01v8 w=1 l=0.15

M1291 a_8249_6226# WWL_8 WBLb_14 GND sky130_fd_pr__nfet_01v8 w=1 l=0.15

M1292 GND a_16462_287# a_16369_287# GND sky130_fd_pr__nfet_01v8 w=1 l=0.15

M1293 GND a_8829_4876# a_8773_4898# GND sky130_fd_pr__nfet_01v8 w=1 l=0.15

M1294 GND a_15789_826# a_15733_848# GND sky130_fd_pr__nfet_01v8 w=1 l=0.15

M1295 a_15882_5956# a_15789_5956# VDD VDD sky130_fd_pr__pfet_01v8 w=1 l=0.15

M1296 GND a_15209_4336# a_15153_4358# GND sky130_fd_pr__nfet_01v8 w=1 l=0.15

M1297 WBL_18 WWL_15 a_10662_4336# GND sky130_fd_pr__nfet_01v8 w=1 l=0.15

M1298 GND a_15882_8116# a_15789_8116# GND sky130_fd_pr__nfet_01v8 w=1 l=0.15

M1299 a_9989_6766# WWL_6 WBLb_17 GND sky130_fd_pr__nfet_01v8 w=1 l=0.15

M1300 a_8193_5168# RWL_12 RBL1_14 GND sky130_fd_pr__nfet_01v8 w=1 l=0.15

M1301 a_6602_8386# a_6509_8386# GND GND sky130_fd_pr__nfet_01v8 w=1 l=0.15

M1302 a_222_7576# a_129_7576# GND GND sky130_fd_pr__nfet_01v8 w=1 l=0.15

M1303 a_4769_4606# WWL_14 WBLb_8 GND sky130_fd_pr__nfet_01v8 w=1 l=0.15

M1304 a_1382_6226# a_1289_6226# GND GND sky130_fd_pr__nfet_01v8 w=1 l=0.15

M1305 RBL0_6 RWL_15 a_3903_4358# GND sky130_fd_pr__nfet_01v8 w=1 l=0.15

M1306 a_12023_3008# a_11822_2986# GND GND sky130_fd_pr__nfet_01v8 w=1 l=0.15

M1307 GND a_12402_2716# a_12309_2716# GND sky130_fd_pr__nfet_01v8 w=1 l=0.15

M1308 RBL0_20 RWL_29 a_12023_578# GND sky130_fd_pr__nfet_01v8 w=1 l=0.15

M1309 a_14722_1636# a_14629_1636# VDD VDD sky130_fd_pr__pfet_01v8 w=1 l=0.15

M1310 a_15302_2716# a_15209_2716# VDD VDD sky130_fd_pr__pfet_01v8 w=1 l=0.15

M1311 VDD a_12402_6496# a_12309_6496# VDD sky130_fd_pr__pfet_01v8 w=1 l=0.15

M1312 a_11149_4066# WWL_16 WBLb_19 GND sky130_fd_pr__nfet_01v8 w=1 l=0.15

M1313 GND a_11729_2716# a_11673_2738# GND sky130_fd_pr__nfet_01v8 w=1 l=0.15

M1314 a_3122_6766# a_3029_6766# VDD VDD sky130_fd_pr__pfet_01v8 w=1 l=0.15

M1315 a_4713_3548# RWL_18 RBL1_8 GND sky130_fd_pr__nfet_01v8 w=1 l=0.15

M1316 RBL0_30 RWL_5 a_17823_7058# GND sky130_fd_pr__nfet_01v8 w=1 l=0.15

M1317 GND a_3122_556# a_3029_556# GND sky130_fd_pr__nfet_01v8 w=1 l=0.15

M1318 VDD a_222_826# a_129_826# VDD sky130_fd_pr__pfet_01v8 w=1 l=0.15

M1319 a_17042_5686# a_16949_5686# GND GND sky130_fd_pr__nfet_01v8 w=1 l=0.15

M1320 a_11093_3008# RWL_20 RBL1_19 GND sky130_fd_pr__nfet_01v8 w=1 l=0.15

M1321 a_709_2176# WWL_23 WBLb_1 GND sky130_fd_pr__nfet_01v8 w=1 l=0.15

M1322 a_13413_4088# RWL_16 RBL1_23 GND sky130_fd_pr__nfet_01v8 w=1 l=0.15

M1323 a_1583_4898# a_1382_4876# GND GND sky130_fd_pr__nfet_01v8 w=1 l=0.15

M1324 a_15733_309# RWL_30 RBL1_27 GND sky130_fd_pr__nfet_01v8 w=1 l=0.15

M1325 a_1233_8138# RWL_1 RBL1_2 GND sky130_fd_pr__nfet_01v8 w=1 l=0.15

M1326 RBL0_8 RWL_2 a_5063_7868# GND sky130_fd_pr__nfet_01v8 w=1 l=0.15

M1327 WBL_9 WWL_12 a_5442_5146# GND sky130_fd_pr__nfet_01v8 w=1 l=0.15

M1328 a_13183_6518# a_12982_6496# GND GND sky130_fd_pr__nfet_01v8 w=1 l=0.15

M1329 VDD a_17042_2176# a_16949_2176# VDD sky130_fd_pr__pfet_01v8 w=1 l=0.15

M1330 WBL_13 WWL_8 a_7762_6226# GND sky130_fd_pr__nfet_01v8 w=1 l=0.15

M1331 a_15503_7598# a_15302_7576# GND GND sky130_fd_pr__nfet_01v8 w=1 l=0.15

M1332 RBL0_23 RWL_30 a_13763_309# GND sky130_fd_pr__nfet_01v8 w=1 l=0.15

M1333 GND a_7089_4606# a_7033_4628# GND sky130_fd_pr__nfet_01v8 w=1 l=0.15

M1334 GND a_6509_3526# a_6453_3548# GND sky130_fd_pr__nfet_01v8 w=1 l=0.15

M1335 GND a_1962_5146# a_1869_5146# GND sky130_fd_pr__nfet_01v8 w=1 l=0.15

M1336 a_12023_5978# a_11822_5956# GND GND sky130_fd_pr__nfet_01v8 w=1 l=0.15

M1337 GND a_13469_287# a_13413_309# GND sky130_fd_pr__nfet_01v8 w=1 l=0.15

M1338 VDD a_15882_1636# a_15789_1636# VDD sky130_fd_pr__pfet_01v8 w=1 l=0.15

M1339 GND a_15789_556# a_15733_578# GND sky130_fd_pr__nfet_01v8 w=1 l=0.15

M1340 GND a_3702_1906# a_3609_1906# GND sky130_fd_pr__nfet_01v8 w=1 l=0.15

M1341 VDD a_4282_6766# a_4189_6766# VDD sky130_fd_pr__pfet_01v8 w=1 l=0.15

M1342 VDD a_3702_5686# a_3609_5686# VDD sky130_fd_pr__pfet_01v8 w=1 l=0.15

M1343 a_2449_3256# WWL_19 WBLb_4 GND sky130_fd_pr__nfet_01v8 w=1 l=0.15

M1344 RBL0_17 RWL_6 a_10283_6788# GND sky130_fd_pr__nfet_01v8 w=1 l=0.15

M1345 GND a_15209_4066# a_15153_4088# GND sky130_fd_pr__nfet_01v8 w=1 l=0.15

M1346 WBL_18 WWL_16 a_10662_4066# GND sky130_fd_pr__nfet_01v8 w=1 l=0.15

M1347 a_9989_6496# WWL_7 WBLb_17 GND sky130_fd_pr__nfet_01v8 w=1 l=0.15

M1348 a_17243_1118# a_17042_1096# GND GND sky130_fd_pr__nfet_01v8 w=1 l=0.15

M1349 RBL0_2 RWL_20 a_1583_3008# GND sky130_fd_pr__nfet_01v8 w=1 l=0.15

M1350 a_6602_8116# a_6509_8116# GND GND sky130_fd_pr__nfet_01v8 w=1 l=0.15

M1351 a_17622_2446# a_17529_2446# VDD VDD sky130_fd_pr__pfet_01v8 w=1 l=0.15

M1352 a_12982_1366# a_12889_1366# VDD VDD sky130_fd_pr__pfet_01v8 w=1 l=0.15

M1353 RBL0_6 RWL_16 a_3903_4088# GND sky130_fd_pr__nfet_01v8 w=1 l=0.15

M1354 GND a_17622_4606# a_17529_4606# GND sky130_fd_pr__nfet_01v8 w=1 l=0.15

M1355 GND a_12402_2446# a_12309_2446# GND sky130_fd_pr__nfet_01v8 w=1 l=0.15

M1356 a_11093_5978# RWL_9 RBL1_19 GND sky130_fd_pr__nfet_01v8 w=1 l=0.15

M1357 VDD a_17622_8386# a_17529_8386# VDD sky130_fd_pr__pfet_01v8 w=1 l=0.15

M1358 a_16369_5956# WWL_9 WBLb_28 GND sky130_fd_pr__nfet_01v8 w=1 l=0.15

M1359 RBL0_10 RWL_24 a_6223_1928# GND sky130_fd_pr__nfet_01v8 w=1 l=0.15

M1360 a_3122_2716# a_3029_2716# GND GND sky130_fd_pr__nfet_01v8 w=1 l=0.15

M1361 GND a_16949_4606# a_16893_4628# GND sky130_fd_pr__nfet_01v8 w=1 l=0.15

M1362 VDD a_12402_6226# a_12309_6226# VDD sky130_fd_pr__pfet_01v8 w=1 l=0.15

M1363 a_3122_6496# a_3029_6496# VDD VDD sky130_fd_pr__pfet_01v8 w=1 l=0.15

M1364 GND a_11729_2446# a_11673_2468# GND sky130_fd_pr__nfet_01v8 w=1 l=0.15

M1365 a_4713_3278# RWL_19 RBL1_8 GND sky130_fd_pr__nfet_01v8 w=1 l=0.15

M1366 a_11093_39# RWL_31 RBL1_19 GND sky130_fd_pr__nfet_01v8 w=1 l=0.15

M1367 a_4483_5708# a_4282_5686# GND GND sky130_fd_pr__nfet_01v8 w=1 l=0.15

M1368 a_17042_5416# a_16949_5416# GND GND sky130_fd_pr__nfet_01v8 w=1 l=0.15

M1369 VDD a_8342_1366# a_8249_1366# VDD sky130_fd_pr__pfet_01v8 w=1 l=0.15

M1370 a_12889_4336# WWL_15 WBLb_22 GND sky130_fd_pr__nfet_01v8 w=1 l=0.15

M1371 a_6803_6788# a_6602_6766# GND GND sky130_fd_pr__nfet_01v8 w=1 l=0.15

M1372 WBL_20 WWL_3 a_11822_7576# GND sky130_fd_pr__nfet_01v8 w=1 l=0.15

M1373 a_709_1906# WWL_24 WBLb_1 GND sky130_fd_pr__nfet_01v8 w=1 l=0.15

M1374 WBL_30 WWL_28 a_17622_826# GND sky130_fd_pr__nfet_01v8 w=1 l=0.15

M1375 a_18403_8408# a_18202_8386# GND GND sky130_fd_pr__nfet_01v8 w=1 l=0.15

M1376 RBL0_8 a_4683_7576# a_5063_7598# GND sky130_fd_pr__nfet_01v8 w=1 l=0.15

M1377 WBL_9 WWL_13 a_5442_4876# GND sky130_fd_pr__nfet_01v8 w=1 l=0.15

M1378 a_13183_6248# a_12982_6226# GND GND sky130_fd_pr__nfet_01v8 w=1 l=0.15

M1379 a_13562_3796# a_13469_3796# GND GND sky130_fd_pr__nfet_01v8 w=1 l=0.15

M1380 VDD a_17042_1906# a_16949_1906# VDD sky130_fd_pr__pfet_01v8 w=1 l=0.15

M1381 a_13562_7576# a_13469_7576# VDD VDD sky130_fd_pr__pfet_01v8 w=1 l=0.15

M1382 a_15882_4876# a_15789_4876# GND GND sky130_fd_pr__nfet_01v8 w=1 l=0.15
